Version 4.1
SHEET 1 3300 932
WIRE 448 112 384 112
WIRE 624 112 528 112
WIRE 1536 112 1328 112
WIRE 1680 112 1616 112
WIRE 1776 112 1712 112
WIRE 1840 112 1776 112
WIRE 2112 112 1920 112
WIRE 2544 112 2416 112
WIRE 2752 112 2608 112
WIRE 2960 128 2832 128
WIRE 3088 128 3024 128
WIRE 2752 144 2736 144
WIRE 2576 176 2576 144
WIRE 2576 176 2560 176
WIRE 1776 208 1776 112
WIRE 2128 208 1776 208
WIRE 3088 224 3088 128
WIRE 2736 240 2736 144
WIRE 2736 240 2720 240
WIRE 2928 240 2864 240
WIRE 384 256 384 112
WIRE 384 256 176 256
WIRE 448 256 384 256
WIRE 624 256 624 112
WIRE 624 256 528 256
WIRE 768 256 624 256
WIRE 880 256 768 256
WIRE 1696 256 1696 128
WIRE 2128 256 1696 256
WIRE 3056 256 3008 256
WIRE 2928 272 2880 272
WIRE 768 320 768 256
WIRE -192 336 -256 336
WIRE -64 336 -128 336
WIRE 2880 336 2880 272
WIRE 2960 336 2880 336
WIRE 2880 352 2880 336
WIRE -64 368 -64 336
WIRE 176 368 176 256
WIRE -256 384 -256 336
WIRE 1392 432 1328 432
WIRE 1616 432 1456 432
WIRE 1840 448 1696 448
WIRE 1616 464 1584 464
WIRE 2128 464 1920 464
WIRE 1424 480 1424 464
WIRE 1424 480 1328 480
WIRE 1840 480 1792 480
WIRE -256 496 -256 464
WIRE -64 496 -64 448
WIRE 176 512 176 448
WIRE 352 512 352 464
WIRE 2880 512 2880 416
WIRE 3088 512 3088 288
WIRE 3088 512 2880 512
WIRE 176 544 176 512
WIRE 352 544 352 512
WIRE 1584 544 1584 464
WIRE 1584 544 1328 544
WIRE 768 560 768 400
WIRE 2880 560 2880 512
WIRE 2880 560 2400 560
WIRE 2944 560 2912 560
WIRE 1792 576 1792 480
WIRE 2128 576 1792 576
WIRE 2128 624 1696 624
WIRE 2608 624 2400 624
WIRE 2880 624 2880 560
WIRE 2880 624 2672 624
WIRE 1696 656 1696 624
WIRE 768 688 768 640
WIRE 896 688 768 688
WIRE 2912 688 2912 560
WIRE 2912 688 2400 688
WIRE 176 704 176 624
WIRE 352 704 352 624
WIRE 768 704 768 688
WIRE 2896 752 2400 752
WIRE 3008 752 2896 752
WIRE 1696 768 1696 736
WIRE 2896 768 2896 752
WIRE 3008 768 3008 752
WIRE 2896 880 2896 848
WIRE 3008 880 3008 848
FLAG 768 704 0
FLAG 880 256 Fase_A
IOPIN 880 256 Out
FLAG 176 704 0
FLAG 352 704 0
FLAG 352 384 VD_AC
FLAG 176 256 VCC_AC
FLAG 2112 112 Fase_B
IOPIN 2112 112 In
FLAG 1328 112 Fase_A
IOPIN 1328 112 In
FLAG 2128 256 I_A
IOPIN 2128 256 Out
FLAG 2128 208 BEMF
IOPIN 2128 208 Out
FLAG 2128 464 Tmotor
IOPIN 2128 464 Out
FLAG 2128 576 wang
IOPIN 2128 576 In
FLAG 1328 544 I_A
IOPIN 1328 544 In
FLAG 1328 480 Fase_B
IOPIN 1328 480 In
FLAG 1328 432 BEMF
IOPIN 1328 432 In
FLAG 2128 624 Tmotor2
IOPIN 2128 624 Out
FLAG 1696 768 0
FLAG 2416 112 Tmotor2
IOPIN 2416 112 In
FLAG 2400 624 rpm
IOPIN 2400 624 Out
FLAG 2400 560 wang
IOPIN 2400 560 Out
FLAG 2944 560 theta_t
FLAG 2400 688 theta_t
IOPIN 2400 688 Out
FLAG 2400 752 theta
IOPIN 2400 752 Out
FLAG 2560 176 Tload
IOPIN 2560 176 In
FLAG 896 688 Fase_B
IOPIN 896 688 Out
FLAG 352 512 VD
FLAG 176 512 VCC
FLAG 1104 240 Tload
IOPIN 1104 240 Out
FLAG 1104 320 0
FLAG 2960 336 theta_t
FLAG -256 496 0
FLAG -64 496 0
FLAG -64 336 PID
FLAG 3008 880 0
FLAG 2896 880 0
SYMBOL bi2 528 112 R90
WINDOW 0 -32 40 VBottom 2
WINDOW 3 32 40 VTop 2
SYMATTR InstName B1
SYMATTR Value I=V(VD)*V(I_A)
SYMBOL bi2 528 256 R90
WINDOW 0 -32 40 VBottom 2
WINDOW 3 32 40 VTop 2
SYMATTR InstName B2
SYMATTR Value I=(V(VD_AC)-V(VD))*V(I_A)
SYMBOL bv 768 304 R0
SYMATTR InstName B3
SYMATTR Value V=V(VD)*V(VCC)
SYMBOL bv 768 544 R0
SYMATTR InstName B5
SYMATTR Value V=(V(VD_AC)-V(VD))*V(VCC)
SYMBOL voltage 176 352 R0
WINDOW 123 24 124 Left 2
WINDOW 39 0 0 Left 0
SYMATTR Value2 AC 0 0
SYMATTR InstName V1
SYMATTR Value 0
SYMBOL voltage 176 528 R0
SYMATTR InstName VCC
SYMATTR Value 10
SYMBOL voltage 352 368 R0
WINDOW 3 24 152 Left 2
WINDOW 123 24 124 Left 2
WINDOW 39 0 0 Left 0
SYMATTR Value 0
SYMATTR Value2 AC 0.01 0
SYMATTR InstName V2
SYMBOL voltage 352 528 R0
SYMATTR InstName VD
SYMATTR Value 0.5
SYMBOL ind 1520 128 R270
WINDOW 0 32 56 VTop 2
WINDOW 3 5 56 VBottom 2
SYMATTR InstName L1
SYMATTR Value {Lm}
SYMATTR SpiceLine Rser={Rm}
SYMBOL Control\\isense 1696 112 R0
SYMATTR InstName U1
SYMBOL bv 1824 112 R270
WINDOW 0 32 56 VTop 2
WINDOW 3 -30 85 VBottom 2
SYMATTR InstName B6
SYMATTR Value V=KV_EMF * V(wang)
SYMBOL Control\\sub2 1424 432 R0
SYMATTR InstName U2
SYMBOL Control\\mul 1648 448 R0
SYMATTR InstName U3
SYMBOL Control\\div 1872 464 R0
SYMATTR InstName U4
SYMBOL bv 1696 640 R0
SYMATTR InstName B7
SYMATTR Value V=KV_EMF * V(I_A)
SYMBOL Control\\sub2 2576 112 R0
SYMATTR InstName U5
SYMBOL Control\\constant 2688 240 R0
SYMATTR InstName U6
SYMATTR Value K=J
SYMBOL Control\\constant 2832 240 R0
SYMATTR InstName U7
SYMATTR Value K=B/J
SYMBOL Control\\div 2784 128 R0
SYMATTR InstName U8
SYMBOL Control\\integ 2992 128 R0
SYMATTR InstName U9
SYMBOL Control\\integ 2880 384 R270
SYMATTR InstName U10
SYMBOL Control\\sub2 3088 256 R90
SYMATTR InstName U11
SYMBOL Control\\mul 2960 256 R0
SYMATTR InstName U12
SYMBOL Control\\gain 2640 624 R180
SYMATTR InstName U13
SYMATTR Value A=60/(2*pi)
SYMBOL res 2880 752 R0
SYMATTR InstName R2
SYMATTR Value 1G
SYMBOL voltage 1104 224 R0
WINDOW 123 0 0 Left 0
WINDOW 39 0 0 Left 0
SYMATTR InstName V3
SYMATTR Value 0.01
SYMBOL voltage -256 368 R0
WINDOW 123 24 124 Left 2
WINDOW 39 0 0 Left 0
SYMATTR Value2 AC 1
SYMATTR InstName V4
SYMATTR Value 1
SYMBOL Control\\pid_comp -160 336 R0
SYMATTR InstName U14
SYMATTR Value k=20
SYMATTR Value2 tau_i=0.1
SYMATTR SpiceLine tau_d=0.01
SYMBOL res -80 352 R0
SYMATTR InstName R3
SYMATTR Value 1G
SYMBOL bv 3008 752 R0
SYMATTR InstName B4
SYMATTR Value V=KV_EMF*V(theta_t)
TEXT 1352 16 Left 2 !.param Lm =850u Rm=5
TEXT 2120 168 Left 0 ;per calcular la potència elèctrica
TEXT 2128 232 Left 0 ;aquest multiplicat per KV=KI
TEXT 2608 296 Left 2 !.param J=2.5e-4
TEXT 2608 320 Left 2 !.param B=1.04e-3
TEXT 1792 16 Left 2 !.param KV_EMF = 0.083
TEXT 2672 640 Left 2 ;60/2*pi
TEXT 1352 -72 Left 2 !.ac dec 10 10m 10K
RECTANGLE Normal 1744 304 1344 -32 2
RECTANGLE Normal 2096 240 1760 -32 2
RECTANGLE Normal 2096 800 1344 352 2
RECTANGLE Normal 3168 528 2448 32 2
RECTANGLE Normal 3168 928 2448 544 2
