Version 4.1
SHEET 1 1908 932
WIRE 144 112 16 112
WIRE 288 112 224 112
WIRE 384 112 320 112
WIRE 448 112 384 112
WIRE 720 112 528 112
WIRE 1152 112 1024 112
WIRE 1360 112 1216 112
WIRE -512 128 -512 96
WIRE -384 128 -384 96
WIRE -288 128 -288 80
WIRE 1568 128 1440 128
WIRE 1696 128 1632 128
WIRE 1360 144 1344 144
WIRE 1184 176 1184 144
WIRE 1184 176 1168 176
WIRE 384 208 384 112
WIRE 736 208 384 208
WIRE 1696 224 1696 128
WIRE -512 240 -512 208
WIRE -384 240 -384 208
WIRE -288 240 -288 208
WIRE 1344 240 1344 144
WIRE 1344 240 1328 240
WIRE 1536 240 1472 240
WIRE 304 256 304 128
WIRE 736 256 304 256
WIRE 1664 256 1616 256
WIRE 1536 272 1488 272
WIRE 1488 320 1488 272
WIRE 1568 320 1488 320
WIRE 1488 352 1488 320
WIRE 1568 384 1568 320
WIRE 0 432 -64 432
WIRE 224 432 64 432
WIRE 448 448 304 448
WIRE 224 464 192 464
WIRE 736 464 528 464
WIRE 32 480 32 464
WIRE 32 480 -64 480
WIRE 448 480 400 480
WIRE 1488 512 1488 416
WIRE 1696 512 1696 288
WIRE 1696 512 1488 512
WIRE 192 544 192 464
WIRE 192 544 -64 544
WIRE 1488 560 1488 512
WIRE 1488 560 1008 560
WIRE 1552 560 1520 560
WIRE 400 576 400 480
WIRE 736 576 400 576
WIRE 736 624 304 624
WIRE 1216 624 1008 624
WIRE 1488 624 1488 560
WIRE 1488 624 1280 624
WIRE 304 656 304 624
WIRE 1520 688 1520 560
WIRE 1520 688 1008 688
WIRE 1504 752 1008 752
WIRE 1616 752 1504 752
WIRE 304 768 304 736
WIRE 1504 768 1504 752
WIRE 1616 768 1616 752
WIRE 1104 848 1008 848
WIRE 1504 880 1504 848
WIRE 1616 880 1616 848
FLAG 720 112 Fase_B
IOPIN 720 112 In
FLAG 16 112 Fase_A
IOPIN 16 112 In
FLAG 736 256 I_A
IOPIN 736 256 Out
FLAG 736 208 BEMF
IOPIN 736 208 Out
FLAG 736 464 Tmotor
IOPIN 736 464 Out
FLAG 736 576 wang
IOPIN 736 576 In
FLAG -64 544 I_A
IOPIN -64 544 In
FLAG -64 480 Fase_B
IOPIN -64 480 In
FLAG -64 432 BEMF
IOPIN -64 432 In
FLAG 736 624 Tmotor2
IOPIN 736 624 Out
FLAG 304 768 0
FLAG 1024 112 Tmotor2
IOPIN 1024 112 In
FLAG 1008 624 rpm
IOPIN 1008 624 Out
FLAG 1008 560 wang
IOPIN 1008 560 Out
FLAG 1552 560 theta_t
FLAG 1008 688 theta_t
IOPIN 1008 688 Out
FLAG 1008 752 theta
IOPIN 1008 752 Out
FLAG 1168 176 Tload
IOPIN 1168 176 In
FLAG -512 240 0
FLAG -512 96 Fase_A
IOPIN -512 96 Out
FLAG -384 240 0
FLAG -288 240 0
FLAG -288 80 Tload
IOPIN -288 80 Out
FLAG -384 96 Fase_B
IOPIN -384 96 Out
FLAG 1568 384 theta_t
FLAG 1008 848 Tmotor
IOPIN 1008 848 Out
FLAG 1504 880 0
FLAG 1616 880 0
SYMBOL ind 128 128 R270
WINDOW 0 32 56 VTop 2
WINDOW 3 5 56 VBottom 2
SYMATTR InstName L1
SYMATTR Value {Lm}
SYMATTR SpiceLine Rser={Rm}
SYMBOL Control\\isense 304 112 R0
SYMATTR InstName U1
SYMBOL bv 432 112 R270
WINDOW 0 32 56 VTop 2
WINDOW 3 -30 85 VBottom 2
SYMATTR InstName B1
SYMATTR Value V=KV_EMF * V(wang)
SYMBOL Control\\sub2 32 432 R0
SYMATTR InstName U2
SYMBOL Control\\mul 256 448 R0
SYMATTR InstName U3
SYMBOL Control\\div 480 464 R0
SYMATTR InstName U4
SYMBOL bv 304 640 R0
SYMATTR InstName B2
SYMATTR Value V=KV_EMF * V(I_A)
SYMBOL Control\\sub2 1184 112 R0
SYMATTR InstName U5
SYMBOL Control\\constant 1296 240 R0
SYMATTR InstName U6
SYMATTR Value K=J
SYMBOL Control\\constant 1440 240 R0
SYMATTR InstName U7
SYMATTR Value K=B/J
SYMBOL Control\\div 1392 128 R0
SYMATTR InstName U8
SYMATTR Value eps=0
SYMBOL Control\\integ 1600 128 R0
SYMATTR InstName U9
SYMBOL Control\\integ 1488 384 R270
SYMATTR InstName U10
SYMBOL Control\\sub2 1696 256 R90
SYMATTR InstName U11
SYMBOL Control\\mul 1568 256 R0
SYMATTR InstName U12
SYMBOL Control\\gain 1248 624 R180
SYMATTR InstName U13
SYMATTR Value A=60/(2*pi)
SYMBOL res 1488 752 R0
SYMATTR InstName R2
SYMATTR Value 1G
SYMBOL voltage -512 112 R0
WINDOW 3 155 259 Right 2
WINDOW 123 0 0 Left 0
WINDOW 39 0 0 Left 0
SYMATTR Value PULSE(0 12 0 10m 10m 10 20)
SYMATTR InstName V1
SYMBOL voltage -384 112 R0
SYMATTR InstName V2
SYMATTR Value 0
SYMBOL voltage -288 112 R0
SYMATTR InstName V3
SYMATTR Value 0.01
SYMBOL bv 1616 752 R0
SYMATTR InstName B3
SYMATTR Value V=KV_EMF*V(theta_t)
TEXT -40 16 Left 2 !.param Lm =850u Rm=5
TEXT 728 168 Left 0 ;per calcular la potència elèctrica
TEXT 736 232 Left 0 ;aquest multiplicat per KV=KI
TEXT 1216 296 Left 2 !.param J=2.5e-4
TEXT 1216 320 Left 2 !.param B=1.04e-3
TEXT 400 16 Left 2 !.param KV_EMF = 0.083
TEXT 1280 640 Left 2 ;60/2*pi
TEXT -560 312 Left 2 !.tran 100
TEXT -32 -16 Left 1 ;Domini Elèctric
TEXT 376 -16 Left 1 ;Conversió mecànic a elèctric
TEXT -40 640 Left 2 ;Conversió elèctric a mecànic
TEXT 1064 8 Left 2 ;Domini mecànic
RECTANGLE Normal 352 304 -48 -32 2
RECTANGLE Normal 704 240 368 -32 2
RECTANGLE Normal 704 800 -48 352 2
RECTANGLE Normal 1776 528 1056 32 2
RECTANGLE Normal 1776 928 1056 544 2
